Version 4
SHEET 1 880 680
WIRE 423 239 423 189
WIRE 423 303 423 377
WIRE 146 243 146 189
WIRE 146 323 146 377
WIRE 420 385 420 377
WIRE 420 385 420 377
WIRE 239 189 239 189
WIRE 303 189 303 189
WIRE 146 377 423 377
WIRE 303 189 423 189
WIRE 146 189 239 189
SYMBOL cap 407 239 R0
SYMATTR InstName C0
SYMBOL voltage 146 227 R0
SYMATTR InstName V0
FLAG 420 385 0
SYMBOL diode 303 173 R90
SYMATTR InstName D0
