Version 4
SHEET 1 880 680
WIRE 375 242 375 172
WIRE 375 306 375 400
WIRE 140 269 140 269
WIRE 140 349 140 400
WIRE 390 430 390 400
WIRE 390 430 390 400
WIRE 484 244 484 172
WIRE 484 324 484 400
WIRE 196 172 140 172
WIRE 276 172 276 172
WIRE 140 400 484 400
WIRE 140 172 140 269
WIRE 276 172 484 172
SYMBOL cap 359 242 R0
SYMATTR InstName C0
SYMATTR Value 2
SYMBOL voltage 140 253 R0
SYMATTR InstName V0
SYMATTR Value 5
FLAG 390 430 0
SYMBOL ind 468 228 R0
SYMATTR InstName L0
SYMATTR Value 4
SYMBOL res 180 188 R270
SYMATTR InstName R0
SYMATTR Value 10
