Version 4
SHEET 1 880 680
WIRE 226 157 226 157
WIRE 290 157 290 157
WIRE 380 250 380 157
WIRE 380 314 380 418
WIRE 98 250 98 157
WIRE 98 330 98 418
WIRE 556 207 556 157
WIRE 556 287 556 418
WIRE 366 478 393 469
WIRE 403 453 351 452
WIRE 98 418 556 418
WIRE 290 157 556 157
WIRE 98 157 226 157
SYMBOL cap 226 173 R270
SYMATTR InstName C0
SYMBOL cap 364 250 R0
SYMATTR InstName C1
SYMBOL voltage 98 234 R0
SYMATTR InstName V0
SYMBOL ind 540 191 R0
SYMATTR InstName L0
