Version 4
SHEET 1 880 680
WIRE 405 190 405 292
WIRE 405 190 405 292
WIRE 102 162 102 93
WIRE 102 242 102 292
WIRE 249 93 249 93
WIRE 313 93 313 292
WIRE 102 93 249 93
WIRE 102 292 405 292
FLAG 405 190 0
SYMBOL ind 86 146 R0
SYMATTR InstName L0
SYMBOL diode 249 109 R270
SYMATTR InstName D0
